**************************************
*      Model Generated by MODPEX     *
*Copyright(c) Symmetry Design Systems*
*         All Rights Reserved        *
*    UNPUBLISHED LICENSED SOFTWARE   *
*   Contains Proprietary Information *
*      Which is The Property of      *
*     SYMMETRY OR ITS LICENSORS      *
*    Modeling services provided by   *
* Interface Technologies www.i-t.com *
**************************************
.MODEL Dmur110rl d
+IS=9.82502e-09 RS=0.0304421 N=1.57715 EG=0.849639
+XTI=0.5 BV=100 IBV=0.000002 CJO=5.37397e-11
+VJ=1.24876 M=0.515449 FC=0.5 TT=1.63843e-08
+KF=0 AF=1
* Model generated on August 31, 2003
* Model format: PSpice
